case2869pegase_SE.m
function mpc = case2869pegase_SE
%CASE2869PEGASE_SE

%% MATPOWER Case Format : Version 2
mpc.version = '2';

%%-----  Power Flow Data  -----%%
%% system MVA base
mpc.baseMVA = 100;

%% bus data
%	bus_i	type	Pd	Qd	Gs	Bs	area	Vm	Va	baseKV	zone	Vmax	Vmin
mpc.bus = [
	1	1	151	48.8	0	4.69	0	1.01597693	-21.6805675	220	5	1.1	0.9;
	2	1	171.41	23.4	0	2.1	0	1.02599876	-6.89137794	220	5	1.1	0.9;
	3	1	134	24.7	0	12.44	0	1.03787976	-23.7586804	220	5	1.1	0.9;
	4	1	59.67	26.7	0	12.84	0	1.02427949	-48.1543485	220	4	1.1	0.9;
	5	1	161.2	39.3	0	30.71	0	1.03553759	-21.4052594	220	5	1.1	0.9;
	6	1	0	-0	0	0.85	0	1.03295295	-18.0980105	220	5	1.1	0.9;
	7	1	167.3	54.8	0	110.54	0	1.03285461	-3.22663392	380	5	1.1	0.9;
	8	1	152.9	49.4	0	27.65	0	0.997907866	-13.5726852	380	5	1.1	0.9;
	9	2	0	0	0	0	0	1.006206	-42.2819118	220	4	1.1	0.9;
	10	2	0	0	0	0	0	1.031909	-37.954584	220	4	1.1	0.9;
	11	1	42.75	12.8	0	13.3	0	1.02847711	27.5203391	220	8	1.1	0.9;
	12	2	0	0	0	0	0	1.005551	-37.5892686	150	10	1.1	0.9;
	13	1	20.82	7.9	0	26.89	0	1.04740384	-48.3901489	380	4	1.1	0.9;
	14	1	-0	0	0	7.27	0	1.04517894	-21.6542903	220	5	1.1	0.9;
	15	2	0	0	0	0	0	1.01198	-47.4308908	220	4	1.1	0.9;
	16	1	127.6	31.8	0	20.51	0	1.01380906	1.66347931	150	8	1.1	0.9;
	17	1	48.65	16.1	0	7.14	0	1.06053672	-9.07717356	220	5	1.1	0.9;
	18	1	0	0	0	2.31	0	0.996663482	-15.539313	380	5	1.1	0.9;
	19	1	119.2	20.7	0	3.31	0	1.03161714	-23.5817998	220	5	1.1	0.9;
	20	1	62.87	20.5	0	1.15	0	1.01238607	0.446867854	150	8	1.1	0.9;
	21	1	126.3	42.4	0	55.24	0	1.03801589	4.77550344	150	8	1.1	0.9;
	22	1	6.91	-4.6	0	5.75	0	1.00970737	-40.4609361	220	4	1.1	0.9;
	23	1	38.74	6.1	0	1.17	0	1.02442451	-52.4251689	220	4	1.1	0.9;
	24	1	22.13	10.7	0	14.21	0	1.02853899	27.5299571	220	8	1.1	0.9;
	25	1	-0	-0	0	0.73	0	1.01468888	-49.6971559	220	4	1.1	0.9;
	26	1	0	0	0.199111	4.530599	0	0.995990632	-2.01355332	380	2	1.1	0.9;
	27	1	363.25	115.39	0	3.95	0	1.04295741	-27.2303335	220	5	1.1	0.9;
	28	1	-0	0	0	0.02	0	1.01179011	2.75940697	150	8	1.1	0.9;
	29	1	-8.4	28.66	0	3.49	0	1.03481007	-15.4570085	220	5	1.1	0.9;
	30	1	-0	-0	0	6.532711	0	1.03054623	-13.8395094	380	5	1.1	0.9;
	31	1	0	-0	0	4.21	0	1.06556549	-19.206116	220	5	1.1	0.9;
	32	1	704.53	-35.33	0	13.102834	0	1.02192114	-11.2783497	380	5	1.1	0.9;
	33	2	0	0	0	0	0	1.079291	8.45462644	220	5	1.1	0.9;
	34	1	23.73	12.7	0	0.52	0	1.02017515	-15.4797791	220	5	1.1	0.9;
	35	1	-0	0	0.135375	47.750675	0	1.06297633	-46.5928137	380	10	1.1	0.9;
	36	1	0	-0	0	21.39	0	1.067846	-43.2572556	380	1	1.1	0.9;
	37	1	38.14	12.5	0	6.28	0	1.0197318	3.22374732	150	8	1.1	0.9;
	38	1	-75.38	7.8	0	29.9	0	1.07115948	-41.2789539	380	10	1.1	0.9;
	39	1	-764.34	66.91	0	33.47	0	1.00378007	18.9889101	380	8	1.1	0.9;
	40	1	0	0	0	4.14	0	1.02917977	18.9877001	220	8	1.1	0.9;
	41	1	0	0	0	0	0	1.01418949	6.0007325	150	8	1.1	0.9;
	42	1	38.34	5.6	0	7.64	0	1.04216934	-8.80549817	220	5	1.1	0.9;
	43	1	32.34	12	0	6.1	0	1.04168656	-7.89687518	220	5	1.1	0.9;
	44	2	0	0	0	0	0	1.062067	2.64567891	220	5	1.1	0.9;
	45	1	147.76	32.73	0	8.34	0	1.04260045	-10.4676853	220	5	1.1	0.9;
	46	1	0	-0	0	5.17	0	1.01600837	0.691258275	150	8	1.1	0.9;
	47	1	100.8	13.2	0	5.24	0	1.06377143	-24.7700698	220	5	1.1	0.9;
	48	1	111.7	10.96	0	4.22	0	1.01704326	-46.5080226	220	4	1.1	0.9;
	49	1	370.5	-17	0	9.91	0	1.07336509	-27.4462581	220	5	1.1	0.9;
	50	1	94.9	36.2	0	16.46	0	0.973373626	-42.6308832	220	10	1.1	0.9;
	51	2	0	0	0	0	0	1.048817	-49.1895358	380	4	1.1	0.9;
	52	1	-0	-0	0	2.42	0	1.04385077	-11.2713174	220	5	1.1	0.9;
	53	1	36.84	13.9	0	3.3	0	1.01828772	-19.1526892	220	5	1.1	0.9;
	54	2	0	0	0	0	0	1.029584	14.378265	150	8	1.1	0.9;
	55	1	73.14	21.55	0	8.52	0	1.05318992	-8.50311513	220	5	1.1	0.9;
	56	1	0	-0	0	12.48	0	1.07423707	-25.7598076	220	5	1.1	0.9;
	57	1	39.74	11.8	0	1.44	0	1.01590126	-15.7549161	220	5	1.1	0.9;
	58	1	86.8	28.4	0	1.34	0	1.01183769	1.92681916	150	8	1.1	0.9;
	59	2	0	0	0	0	0	1.024675	-50.6529557	220	4	1.1	0.9;
	60	1	46.15	18.2	0	1.29	0	1.00914883	6.60398434	150	8	1.1	0.9;
	61	1	321.98	84.4	0	1.34	0	1.02784251	-12.8158796	220	5	1.1	0.9;
	62	1	75.28	19.2	0	1.9	0	1.0325242	14.7689675	110	8	1.1	0.9;
	63	1	155.6	54.7	0	2.21	0	1.03856289	-24.1374062	220	5	1.1	0.9;
	64	1	105.2	0.1	0	7.36	0	1.03492754	-2.40617295	220	5	1.1	0.9;
	65	1	69.83	15.12	0	2.23	0	1.04250006	-13.0222012	220	5	1.1	0.9;
	66	2	0	0	0	0	0	0.996091	-16.1648392	380	5	1.1	0.9;
	67	1	0	0	0	1.15	0	1.0625275	-19.5976231	220	5	1.1	0.9;
	68	1	-23.43	57.4	0	0	0	1.04447674	-6.44350307	150	2	1.1	0.9;
	69	1	152.07	22.52	0	7.87	0	1.00700086	-46.2644175	220	4	1.1	0.9;
	70	1	-0.13	-1	0	0	0	1.01976772	24.3144198	110	8	1.1	0.9;
	71	1	45.85	7	0	1.05	0	1.02885493	-53.4704744	220	4	1.1	0.9;
	72	1	0	-0.01	0	13.49	0	1.01715298	18.3622095	150	8	1.1	0.9;
	73	1	-0	-0	0	0.68	0	1.01893476	6.49301961	150	8	1.1	0.9;
	74	1	-0	-0	0	26.3	0	1.00539528	-42.2799601	220	4	1.1	0.9;
	75	1	113.9	24.5	0	6.72	0	1.03409217	-45.5514823	220	4	1.1	0.9;
	76	1	-0	0	0	1.29	0	1.05686021	-45.0706322	380	10	1.1	0.9;
	77	1	38.74	9	0	0.57	0	1.01505052	-46.3077713	220	4	1.1	0.9;
	78	1	0	-0	0	140.96	0	1.05975078	-41.7927632	380	4	1.1	0.9;
	79	1	103.8	2.7	0	3.33	0	1.01627504	-50.8873472	220	4	1.1	0.9;
	80	1	-0.13	-1	0	0	0	1.04665503	27.6802425	220	8	1.1	0.9;
	81	1	96.7	26.8	0	0	0	1.04001127	-6.76871875	150	2	1.1	0.9;
	82	1	102.1	25.3	0	1.11	0	1.01342218	2.71942187	150	8	1.1	0.9;
	83	1	119.6	29.6	0	5.34	0	1.03311902	-10.8678913	220	5	1.1	0.9;
	84	1	-0	-0	0	18.07	0	1.03506245	14.5979502	380	8	1.1	0.9;
	85	1	27.33	11.9	0	1.17	0	1.03663693	-11.4991546	220	5	1.1	0.9;
	86	1	191.2	-3.4	0	19.21	0	1.02394001	-48.2064735	220	4	1.1	0.9;
	87	1	13.82	1.4	0	0.7	0	1.04761128	-14.566531	220	5	1.1	0.9;
	88	1	23.73	9.4	0	1.45	0	1.02594734	6.01795741	150	8	1.1	0.9;
	89	2	0	0	0	0	0	1.046197	-45.6601994	380	4	1.1	0.9;
	90	1	2.2	0.5	0	0.21	0	0.994430235	-53.6870429	150	10	1.1	0.9;
	91	1	103	12	0	0.63	0	1.06585917	-32.1964904	220	5	1.1	0.9;
	92	1	-0	0	0	4.76	0	1.02963235	-18.2302323	220	5	1.1	0.9;
	93	1	42.05	17.2	0	1.31	0	1.00332679	0.356131086	150	8	1.1	0.9;
	94	1	-0.16	-2.91	0	0.43	0	1.05576176	13.053606	110	8	1.1	0.9;
	95	1	163.1	46.3	0	10.6	0	1.00109905	-15.7117627	220	5	1.1	0.9;
	96	1	-0	-0	0	2.13	0	1.02685837	-35.8303969	220	10	1.1	0.9;
	97	1	-0	-0	0.045946	-1.82203	0	1.01774021	4.70062681	380	2	1.1	0.9;
	98	1	303.8	85.4	0	3.63	0	0.963930206	-44.1589963	220	10	1.1	0.9;
	99	1	0	0	0	0	0	1.04678796	27.727126	220	8	1.1	0.9;
	100	1	524.5	43	0	6.85	0	1.01322082	-41.7993318	220	5	1.1	0.9;
	101	2	0	0	0	0	0	1.049578	-6.03113281	220	5	1.1	0.9;
	102	1	372.8	147.5	0	27.73	0	1.02295853	-0.121073076	150	8	1.1	0.9;
	103	1	197.5	48.3	0	0.71	0	1.0394057	-20.8366393	220	5	1.1	0.9;
	104	1	-0	0	0	15.15	0	1.04737297	9.84295378	150	8	1.1	0.9;
	105	1	110.4	26.2	0	5.62	0	1.04293513	-23.7536264	220	5	1.1	0.9;
	106	1	-0.15	-1.93	0	0	0	1.0280358	19.7182393	220	8	1.1	0.9;
	107	2	0	0	0	0	0	1.054691	0.893065384	380	5	1.1	0.9;
	108	1	35.54	11.5	0	3.65	0	1.04850811	12.7736205	110	8	1.1	0.9;
	109	1	65.17	-51.5	0	4.85	0	1.07107553	-23.0364562	220	5	1.1	0.9;
	110	1	-0	0	0	3.78	0	1.04519824	14.7650801	220	8	1.1	0.9;
	111	1	56.76	23.2	0	0.49	0	1.00062272	0.1646931	150	8	1.1	0.9;
	112	1	-0.18	-1	0	0	0	1.02163394	11.7214466	150	8	1.1	0.9;
	113	1	-95.71	-2.8	0	7.25	0	1.00431439	-32.6431596	220	10	1.1	0.9;
	114	1	-0	-0	0	105.84	0	1.0450629	-49.0782389	380	4	1.1	0.9;
	115	1	-0.19	-4.38	0	0	0	1.04047696	7.98983546	150	8	1.1	0.9;
	116	2	0	0	0	0	0	1.020856	-40.5947532	150	10	1.1	0.9;
	117	1	134.1	34.2	0	0.75	0	1.00605857	0.379243211	150	8	1.1	0.9;
	118	1	-0	-0	0	7.85	0	1.03417177	15.8903967	380	8	1.1	0.9;
	119	1	56.5	36.29	0	3.08	0	1.028209	-13.9911148	220	5	1.1	0.9;
	120	1	129.1	7.4	0	0.04	0	1.04148467	-10.993487	220	5	1.1	0.9;
	121	1	170.89	50.38	0	6.44	0	1.03544172	-26.3760277	220	5	1.1	0.9;
	122	2	0	0	0	0	0	1.052152	-6.01392279	220	5	1.1	0.9;
	123	1	4.71	0.7	0	11.39	0	1.02939997	-51.4658648	220	4	1.1	0.9;
	124	1	70.68	13.5	0	6.96	0	1.04178694	-6.66223624	220	5	1.1	0.9;
	125	1	0	0	0	0	0	1.04981528	19.1707301	380	8	1.1	0.9;
	126	1	-0	0	0	2.72	0	1.00775313	8.6768618	380	1	1.1	0.9;
	127	1	123.1	6.5	0	3.25	0	1.04058504	-18.0736921	220	5	1.1	0.9;
	128	1	-0	0	0	1.24	0	1.07785506	-35.3828652	380	1	1.1	0.9;
	129	1	26.93	-22.4	0	4.95	0	1.01945382	-48.1081207	220	4	1.1	0.9;
	130	1	-0	-0	0	68.517663	0	1.04622607	2.50560702	380	5	1.1	0.9;
	131	2	0	0	0	0	0	1.029422	-35.9941484	220	4	1.1	0.9;
	132	1	-0	0	0.199768	27.888516	0	1.03716922	-51.6668378	380	10	1.1	0.9;
	133	2	0	0	0	0	0	1.013689	-45.9309404	220	4	1.1	0.9;
	134	1	0	-0	0	2.45	0	1.03742959	-11.556543	220	5	1.1	0.9;
	135	1	36.74	10.3	0	8.1	0	1.02228888	-44.2721087	220	4	1.1	0.9;
	136	1	0	0	0	29.42	0	1.0211895	-7.88954868	380	5	1.1	0.9;
	137	2	0	0	0	0	0	1.021096	-7.6952872	380	5	1.1	0.9;
	138	1	274.32	5.66	0	13.24	0	1.0439067	-30.4948916	220	5	1.1	0.9;
	139	1	336.2	131.6	0	64.01	0	1.04988129	8.66426734	150	8	1.1	0.9;
	140	1	-22.95	-3.72	0	14.34	0	1.02778854	-45.5678862	220	4	1.1	0.9;
	141	1	0	0	0	70.37	0	1.04950215	-41.7343742	380	4	1.1	0.9;
	142	1	-0	0	0	17.44	0	1.02424389	-47.7056798	220	4	1.1	0.9;
	143	1	57.26	15.6	0	3.43	0	1.0229704	-49.3511298	220	4	1.1	0.9;
	144	1	7.01	2	0	0.44	0	1.01540644	4.80516337	150	8	1.1	0.9;
	145	2	0	0	0	0	0	1.012805	-47.1154364	220	4	1.1	0.9;
	146	1	20.52	4	0	2.77	0	1.03634356	-22.4707845	220	5	1.1	0.9;
	147	1	-0	-0	0	10.04	0	1.01847494	11.8499991	150	8	1.1	0.9;
	148	1	144.4	35.5	0	7.66	0	1.03797454	-14.9853895	220	5	1.1	0.9;
	149	1	-0	0	0	1.96	0	1.04396996	-6.58731375	220	5	1.1	0.9;
	150	1	-0	0	0	0.4	0	1.0628975	-8.77667822	380	5	1.1	0.9;
	151	1	77.29	7	0	17.6	0	1.01603083	-59.9218712	220	4	1.1	0.9;
	152	1	57.46	17.1	0	1.61	0	1.03888705	-7.35102114	220	5	1.1	0.9;
	153	2	0	0	0	0	0	1.074804	-32.983703	220	5	1.1	0.9;
	154	1	207.2	9.4	0	8.77	0	1.02670521	-50.0876709	220	4	1.1	0.9;
	155	1	118.5	20.4	0	2.57	0	1.04888294	-26.8384507	220	5	1.1	0.9;
	156	1	189.9	74.7	0	26.2	0	1.04328426	8.01020395	150	8	1.1	0.9;
	157	1	277.7	45.4	0	0.7	0	1.01438832	-46.1375619	220	4	1.1	0.9;
	158	1	87.8	-1.4	0.079073	36.047349	0	1.05963818	-47.9356712	380	10	1.1	0.9;
	159	1	57.96	18.9	0	14.91	0	1.0139871	3.77048123	150	8	1.1	0.9;
	160	1	79.69	39.6	0	18.83	0	1.0390517	-51.4024278	380	10	1.1	0.9;
	161	1	30.93	8.9	0	0.45	0	1.03327562	17.3405331	110	8	1.1	0.9;
	162	1	0	-0	0	5.15	0	1.07194295	-10.5364519	220	5	1.1	0.9;
	163	1	0	-0	0	10	0	1.04004123	-45.177952	220	4	1.1	0.9;
	164	1	180.8	90.8	0	2.42	0	0.969251199	-42.8537047	150	10	1.1	0.9;
	165	1	0	-0	0	1.97	0	1.02193051	-20.4172413	220	5	1.1	0.9;
	166	1	16.52	9	0	1.17	0	1.0367822	-22.2187554	220	5	1.1	0.9;
	167	1	-0.18	-3.57	0	0	0	1.01716077	18.3622317	150	8	1.1	0.9;
	168	1	42.25	16.6	0	0	0	1.03526124	6.85437344	150	8	1.1	0.9;
	169	1	0	-0	0	0.32	0	1.0519049	-11.0912538	220	5	1.1	0.9;
	170	2	0	0	0	0	0	1.069692	-46.8139379	220	5	1.1	0.9;
	171	1	0	-0	0	0.67	0	1.04511711	-10.4853998	220	5	1.1	0.9;
	172	1	-0.13	-1	0	0	0	1.04590359	27.596744	220	8	1.1	0.9;
	173	1	17.32	6.6	0	16.52	0	1.02159404	-51.4684161	380	4	1.1	0.9;
	174	2	0	0	0	0	0	1.043394	-15.4918004	220	5	1.1	0.9;
	175	1	21.12	8.3	0	4.26	0	1.03267635	5.48719641	150	8	1.1	0.9;
	176	1	-0	0	0	29.2	0	1.0545847	11.774658	380	8	1.1	0.9;
	177	1	67.57	17	0	5.75	0	1.03830708	-8.26755717	220	5	1.1	0.9;
	178	1	47.55	5.3	0	7.59	0	1.02870146	-50.0847886	220	4	1.1	0.9;
	179	1	33.34	15.7	0	64.15	0	1.05911964	-47.4613376	380	4	1.1	0.9;
	180	1	140.6	42.6	0	5.71	0	1.04111942	-14.2183044	220	5	1.1	0.9;
	181	1	110.8	-8.8	0	3.15	0	1.0238073	-46.7202781	220	4	1.1	0.9;
	182	1	33.24	4.4	0	24.54	0	0.996749184	-12.326552	380	5	1.1	0.9;
	183	1	150.9	10.4	0	4.77	0	1.06743372	-32.2827873	220	5	1.1	0.9;
	184	1	-0	-0	0	5.67	0	1.02259634	-14.7282339	220	5	1.1	0.9;
	185	1	-0	0	0	0.91	0	0.990246365	-55.3821887	150	10	1.1	0.9;
	186	2	0	0	0	0	0	1.06611	-10.3873605	220	5	1.1	0.9;
	187	2	0	0	0	0	0	1.049295	-12.7982654	220	5	1.1	0.9;
	188	2	0	0	0	0	0	1.028233	-48.4293905	380	4	1.1	0.9;
	189	1	72.88	14.4	0	2.96	0	1.04526064	-24.8604176	220	5	1.1	0.9;
	190	1	21.42	8.1	0	7.38	0	1.01952659	-51.3919515	220	4	1.1	0.9;
	191	2	0	0	0	0	0	0.98494	-34.4768192	220	10	1.1	0.9;
	192	2	0	0	0	0	0	1.046182	-30.4097655	220	5	1.1	0.9;
	193	1	45.32	18.5	0	0.74	0	1.0382993	-13.7375059	220	5	1.1	0.9;
	194	2	0	0	0	0	0	1.036757	-49.8849624	380	4	1.1	0.9;
	195	1	15.52	6.3	0	0.6	0	1.00721019	0.626154818	150	8	1.1	0.9;
	196	1	40.94	19.2	0	5.2	0	1.02505187	-48.0167205	220	4	1.1	0.9;
	197	1	17.22	4.4	0	1.71	0	1.02062686	13.6055099	110	8	1.1	0.9;
	198	1	-0.15	-1.93	0	0	0	1.02800795	19.7199342	220	8	1.1	0.9;
	199	1	258.4	66.7	0	5.87	0	1.03352694	-17.1055099	220	5	1.1	0.9;
	200	1	-0	-0	0.174507	73.977052	0	1.01742196	4.61571971	380	2	1.1	0.9;
...
];

%%  PMU voltage data (confidence intervals around measurements)
%	bus_i	VR_MAX	VR_MIN	VI_MAX	VI_MIN
mpc.Vpmu = [
	13	0.696069	0.695019	-0.782583	-0.783665;
	15	0.684583	0.684583	-0.745285	-0.745285;
	16	1.01338	1.01338	0.02943	0.02943;
	22	0.768234	0.768234	-0.655229	-0.655229;
	27	0.927371	0.927371	-0.477225	-0.477225;
	32	1.00283	1.00143	-0.199737	-0.200017;
	33	1.06756	1.06756	0.158684	0.158684;
	37	1.01812	1.01812	0.0573449	0.0573449;
	38	0.804983	0.804983	-0.706671	-0.706671;
	44	1.06093	1.06093	0.0490244	0.0490244;
	47	0.966543	0.965282	-0.445355	-0.445971;
	51	0.685464	0.685464	-0.793824	-0.793824;
	55	1.04161	1.04161	-0.155728	-0.155728;
	56	0.967484	0.967484	-0.466863	-0.466863;
	58	1.01127	1.01127	0.034021	0.034021;
	59	0.64966	0.64966	-0.792402	-0.792402;
	64	1.03402	1.03402	-0.0434497	-0.0434497;
	67	1.00098	1.00098	-0.356385	-0.356385;
	72	0.965364	0.965364	0.320427	0.320427;
	75	0.724142	0.724142	-0.738218	-0.738218;
	76	0.746391	0.746391	-0.748234	-0.748234;
	79	0.641595	0.640691	-0.788051	-0.789091;
	88	1.02029	1.02029	0.10756	0.10756;
	89	0.7312	0.7312	-0.748248	-0.748248;
	91	0.902582	0.901393	-0.567569	-0.56834;
	98	0.691533	0.691533	-0.671524	-0.671524;
	101	1.04377	1.04377	-0.110278	-0.110278;
	102	1.02357	1.02219	-0.00216025	-0.00216333;
	104	1.03196	1.03196	0.179047	0.179047;
	108	1.02256	1.02256	0.231825	0.231825;
	110	1.01068	1.01068	0.266376	0.266376;
	111	1.00062	1.00062	0.00287622	0.00287622;
	115	1.03038	1.03038	0.144624	0.144624;
	117	1.00604	1.00604	0.0066591	0.0066591;
	119	0.997705	0.997705	-0.248592	-0.248592;
	120	1.02304	1.02166	-0.198484	-0.198745;
	122	1.04636	1.04636	-0.110234	-0.110234;
	128	0.878776	0.878776	-0.624118	-0.624118;
	132	0.643287	0.643287	-0.813574	-0.813574;
	138	0.899508	0.899508	-0.529743	-0.529743;
	139	1.03861	1.03714	0.158278	0.15806;
	140	0.719994	0.718952	-0.733372	-0.734502;
	143	0.666385	0.666385	-0.776144	-0.776144;
	148	1.00347	1.00205	-0.268195	-0.268601;
	155	0.936502	0.935214	-0.473257	-0.473851;
	168	1.02786	1.02786	0.123555	0.123555;
	171	1.02841	1.02687	-0.190071	-0.190329;
	178	0.66007	0.66007	-0.789009	-0.789009;
	180	1.00999	1.00855	-0.255561	-0.255916;
	183	0.902984	0.901766	-0.569772	-0.570465;
	187	1.02385	1.02246	-0.232264	-0.23258;
	189	0.948401	0.948401	-0.439437	-0.439437;
	190	0.636174	0.636174	-0.796692	-0.796692;
	195	1.00777	1.00647	0.0110141	0.0109996;
	198	0.96848	0.966989	0.347137	0.346617;
	199	0.987809	0.987809	-0.303994	-0.303994;
	202	0.999276	0.999276	0.224659	0.224659;
	205	0.943056	0.943056	-0.309286	-0.309286;
	206	1.04995	1.04995	-0.179998	-0.179998;
	207	0.703933	0.702837	-0.735498	-0.736442;
	208	1.06027	1.06027	-0.0520804	-0.0520804;
	211	0.873608	0.873608	-0.489789	-0.489789;
	212	0.620609	0.620609	-0.80438	-0.80438;
	213	0.82374	0.82374	-0.579577	-0.579577;
	217	0.745148	0.745148	-0.740769	-0.740769;
	220	0.869238	0.869238	-0.446674	-0.446674;
	221	1.01029	1.01029	0.046662	0.046662;
	222	1.05007	1.05007	-0.0673565	-0.0673565;
	224	0.995215	0.995215	0.138043	0.138043;
	227	0.966175	0.966175	-0.467495	-0.467495;
	231	0.74775	0.74775	-0.736274	-0.736274;
	234	1.01271	1.01141	-0.176061	-0.176302;
	241	0.862948	0.862948	-0.567755	-0.567755;
	244	1.00627	1.00491	-0.0644355	-0.0645219;
	245	1.00366	1.00239	-0.273281	-0.27362;
	248	0.94961	0.94961	-0.433698	-0.433698;
	252	0.835364	0.835364	-0.647694	-0.647694;
	254	1.03156	1.03023	0.0159685	0.0159465;
	257	1.04396	1.04396	-0.0285974	-0.0285974;
	258	1.02879	1.02731	0.0894142	0.0892782;
	259	1.02766	1.02766	-0.00776563	-0.00776563;
	260	0.782058	0.782058	-0.687664	-0.687664;
	261	0.962555	0.962555	-0.293349	-0.293349;
	262	0.610368	0.610368	-0.828509	-0.828509;
	270	0.88019	0.88019	-0.605621	-0.605621;
	271	0.983698	0.982185	0.262625	0.262242;
	278	0.813512	0.813512	-0.621926	-0.621926;
	279	0.98993	0.98993	0.228098	0.228098;
	283	0.718764	0.717795	-0.730138	-0.73121;
	284	0.847197	0.847197	-0.643311	-0.643311;
	286	0.948703	0.948703	-0.372491	-0.372491;
	287	0.956567	0.956567	-0.427419	-0.427419;
	288	0.650837	0.649831	-0.745346	-0.746397;
	291	1.03923	1.03923	-0.22862	-0.22862;
	292	0.973799	0.972453	-0.375925	-0.376499;
	294	0.706767	0.706767	-0.728107	-0.728107;
	295	1.05116	1.04962	-0.162059	-0.162282;
	298	0.758043	0.758043	-0.681474	-0.681474;
	303	0.629086	0.629086	-0.805483	-0.805483;
	304	0.784348	0.784348	-0.621832	-0.621832;
	305	0.630226	0.630226	-0.812538	-0.812538;
	307	0.945185	0.945185	0.378868	0.378868;
	310	0.981011	0.979612	-0.349138	-0.349655;
	311	1.03196	1.03196	-0.221496	-0.221496;
	316	1.03037	1.03037	0.144622	0.144622;
	317	0.706694	0.706694	-0.734316	-0.734316;
	318	0.635713	0.635713	-0.796607	-0.796607;
	320	0.900329	0.89902	-0.497066	-0.497836;
	321	0.943501	0.943501	-0.299929	-0.299929;
	322	0.820086	0.81894	-0.589455	-0.590368;
	329	1.02856	1.02699	-0.0643688	-0.0644474;
	336	0.612397	0.611437	-0.829523	-0.830763;
	337	0.766203	0.766203	-0.70954	-0.70954;
	340	 1.022	1.022	-0.183697	-0.183697;
	345	1.02718	1.02718	0.134289	0.134289;
	354	0.824783	0.823679	-0.649965	-0.650903;
	357	0.973209	0.973209	0.318345	0.318345;
	359	0.930835	0.929689	-0.374488	-0.375005;
	369	0.99707	0.99707	-0.0106693	-0.0106693;
	371	0.9733	0.9733	-0.453783	-0.453783;
	374	0.806093	0.806093	-0.657155	-0.657155;
	375	1.0327	1.03135	-0.0469795	-0.0470383;
	376	0.898768	0.898768	-0.572212	-0.572212;
	388	1.00035	1.00035	0.207556	0.207556;
	393	0.576689	0.575863	-0.817001	-0.818232;
	400	1.00929	1.00792	0.106102	0.105955;
	402	0.966827	0.965539	-0.380111	-0.380649;
	404	0.706408	0.705292	-0.7296	-0.730695;
	408	0.702415	0.702415	-0.743455	-0.743455;
	409	0.678258	0.677307	-0.753811	-0.75482;
	412	0.963005	0.961753	-0.390788	-0.391343;
	414	1.01276	1.01276	0.0456014	0.0456014;
	421	0.999121	0.999121	-0.251938	-0.251938;
	422	0.969721	0.968427	-0.240735	-0.241095;
	424	0.619512	0.619512	-0.819388	-0.819388;
	428	1.02164	1.02164	-0.148965	-0.148965;
	431	1.00885	1.00885	0.00998431	0.00998431;
	433	0.821039	0.821039	-0.62013	-0.62013;
	434	0.967241	0.967241	0.346668	0.346668;
	436	0.96738	0.96738	-0.466696	-0.466696;
	442	0.685686	0.685686	-0.761754	-0.761754;
	445	1.01167	1.01167	-0.199199	-0.199199;
	446	0.59773	0.59773	-0.829012	-0.829012;
	447	0.634188	0.634188	-0.800958	-0.800958;
	449	0.648436	0.648436	-0.781682	-0.781682;
	451	1.02445	1.02309	-0.229606	-0.229939;
	452	0.781323	0.781323	-0.607324	-0.607324;
	454	1.00468	1.00319	-0.0330729	-0.0331178;
	457	0.829219	0.829219	-0.649846	-0.649846;
	460	0.978018	0.978018	-0.369	-0.369;
	462	1.01251	1.01251	0.130663	0.130663;
	467	1.00684	1.00684	-0.284131	-0.284131;
	468	0.753934	0.753934	-0.701335	-0.701335;
	470	0.954513	0.953314	-0.400649	-0.401252;
	471	0.83232	0.83232	-0.60129	-0.60129;
	478	0.99793	0.996644	-0.240934	-0.241255;
	482	1.0237	1.0237	-0.204012	-0.204012;
	486	1.00097	1.00097	-0.322446	-0.322446;
	488	0.959137	0.959137	-0.406114	-0.406114;
	490	0.620301	0.619428	-0.811504	-0.812653;
	495	0.93964	0.93964	-0.44747	-0.44747;
	497	0.944307	0.944307	-0.425047	-0.425047;
	501	0.995803	0.995803	0.0516201	0.0516201;
	502	0.998113	0.998113	-0.248284	-0.248284;
	503	0.962103	0.962103	0.32042	0.32042;
	507	0.677592	0.677592	-0.755662	-0.755662;
	508	0.613904	0.613044	-0.828113	-0.829153;
	510	1.03746	1.03746	-0.119159	-0.119159;
	515	1.00292	1.00292	-0.0221975	-0.0221975;
	516	0.783752	0.783752	-0.742066	-0.742066;
	521	0.994992	0.994992	0.202683	0.202683;
	522	0.610278	0.610278	-0.82864	-0.82864;
	531	1.0437	1.0437	-0.206289	-0.206289;
	533	1.04382	1.04382	-0.0285201	-0.0285201;
	538	1.03112	1.02972	0.106289	0.106135;
	541	1.01213	1.01213	-0.229611	-0.229611;
	543	0.905479	0.905479	-0.52676	-0.52676;
	544	0.781421	0.78031	-0.664881	-0.665869;
	551	0.875376	0.875376	-0.539106	-0.539106;
	552	0.960235	0.958882	-0.42078	-0.421374;
	553	1.03357	1.0322	0.216108	0.215813;
	558	0.892111	0.892111	-0.522313	-0.522313;
	561	0.711272	0.711272	-0.747639	-0.747639;
	563	0.746382	0.746382	-0.748222	-0.748222;
	572	0.698449	0.698449	-0.722182	-0.722182;
	573	0.966415	0.966415	-0.380504	-0.380504;
	575	0.983004	0.983004	0.330957	0.330957;
	576	1.02101	1.01952	-0.132676	-0.132858;
	580	1.01229	1.01229	0.0124452	0.0124452;
	582	0.622165	0.622165	-0.823422	-0.823422;
	590	0.754419	0.754419	-0.637177	-0.637177;
	595	0.608884	0.608884	-0.829993	-0.829993;
	597	1.0096	1.0096	0.0295663	0.0295663;
	598	0.988616	0.987213	-0.286009	-0.286425;
	603	1.05821	1.05821	0.143287	0.143287;
	605	0.510306	0.510306	-0.877003	-0.877003;
	606	0.877047	0.877047	-0.626289	-0.626289;
	608	0.790031	0.790031	-0.647998	-0.647998;
	611	1.00651	1.00651	0.186564	0.186564;
	613	0.952726	0.952726	-0.439029	-0.439029;
...
];

%% PMU current injection data (confidence intervals around measurements)
%	bus_i	IR_MAX	IR_MIN	II_MAX	II_MIN
mpc.Ipmu = [
	13	-0.0755522	-0.0756634	0.198856	0.198586;
	15	-1.00152	-1.00152	1.01891	1.01891;
	16	-1.26719	-1.26719	 0.277	0.277;
	22	-0.081633	-0.081633	0.00974737	0.00974737;
	27	-2.59065	-2.59065	2.57742	2.57742;
	32	-6.82364	-6.83384	1.01006	1.00857;
	33	7.96343	7.96343	0.702907	0.702907;
	37	-0.380321	-0.380321	0.101354	0.101354;
	38	0.576893	0.576893	-0.409541	-0.409541;
	44	0.631159	0.631159	0.0669426	0.0669426;
	47	-0.807803	-0.808889	0.510033	0.509287;
	51	-1.91614	-1.91614	0.602845	0.602845;
	55	-0.656573	-0.656573	0.305053	0.305053;
	56	     0	0	     0	0;
	58	-0.866797	-0.866797	0.251675	0.251675;
	59	-0.00801687	-0.00801687	-0.072196	-0.072196;
	64	-1.01556	-1.01556	0.0436413	0.0436413;
	67	     0	0	     0	0;
	72	3.09711e-05	3.09711e-05	-9.33079e-05	-9.33079e-05;
	75	-0.602175	-0.602175	0.952212	0.952212;
	76	     0	0	     0	0;
	79	-0.623264	-0.624173	0.80977	0.808644;
	88	-0.239629	-0.239629	0.0668683	0.0668683;
	89	5.62393	5.62393	-7.54667	-7.54667;
	91	-0.757193	-0.758324	0.610644	0.609724;
	98	-1.64384	-1.64384	2.83122	2.83122;
	101	0.79135	0.79135	-0.0998752	-0.0998752;
	102	-3.63865	-3.64349	1.45067	1.4487;
	104	     0	0	     0	0;
	108	-0.354819	-0.354819	0.0320218	0.0320218;
	110	     0	0	     0	0;
	111	-0.567911	-0.567911	0.230224	0.230224;
	115	0.00765961	0.00765961	-0.0414336	-0.0414336;
	117	-1.33515	-1.33515	0.33111	0.33111;
	119	-0.447866	-0.447866	0.475326	0.475326;
	120	-1.20239	-1.20419	0.306327	0.305922;
	122	2.15742	2.15742	-0.476829	-0.476829;
	128	     0	0	     0	0;
	132	     0	0	     0	0;
	138	-2.23681	-2.23681	1.38024	1.38024;
	139	-3.35226	-3.3571	0.757328	0.756206;
	140	0.130562	0.130376	-0.184647	-0.184926;
	143	-0.248926	-0.248926	0.524025	0.524025;
	148	-1.25462	-1.25636	0.690562	0.689669;
	155	-0.919648	-0.920911	0.68402	0.683075;
	168	-0.424329	-0.424329	0.110494	0.110494;
	171	7.47445e-10	-7.77824e-10	6.17521e-10	-7.5239e-10;
	178	-0.257077	-0.257077	0.387589	0.387589;
	180	-1.20766	-1.20953	0.72884	0.727773;
	183	-1.14221	-1.144	0.838032	0.836869;
	187	3.43249	3.4271	-1.21451	-1.21639;
	189	-0.574715	-0.574715	0.418126	0.418126;
	190	-0.0690148	-0.0690148	0.213752	0.213752;
	195	-0.154652	-0.154866	0.0609052	0.0608137;
	198	0.00771348	0.00770335	-0.0171679	-0.0171925;
	199	-2.19976	-2.19976	1.3522	1.3522;
	202	    -0	-0	     0	0;
	205	-1.94017	-1.94017	1.58853	1.58853;
	206	0.333136	0.333136	-0.134577	-0.134577;
	207	-0.103485	-0.10363	0.195313	0.195058;
	208	     0	0	     0	0;
	211	2.3326	2.3326	-1.45005	-1.45005;
	212	-0.154239	-0.154239	0.335262	0.335262;
	213	     0	0	     0	0;
	217	-0.481316	-0.481316	0.54693	0.54693;
	220	     0	0	     0	0;
	221	    -0	-0	     0	0;
	222	-3.68097	-3.68097	2.04456	2.04456;
	224	-0.589968	-0.589968	0.0256818	0.0256818;
	227	-0.518612	-0.518612	0.416538	0.416538;
	231	-0.680354	-0.680354	1.10321	1.10321;
	234	-1.39536	-1.39725	0.63877	0.637845;
	241	     0	0	     0	0;
	244	-2.89586	-2.90009	0.602893	0.602059;
	245	0.522498	0.52169	-0.220404	-0.220706;
	248	-0.824923	-0.824923	0.250509	0.250509;
	252	12.0496	12.0496	-9.1235	-9.1235;
	254	6.66381e-10	-7.21855e-10	6.95941e-10	-7.81969e-10;
	257	12.1218	12.1218	-3.05484	-3.05484;
	258	-6.1805	-6.19008	2.25278	2.24966;
	259	     0	0	     0	0;
	260	-0.326101	-0.326101	-0.497379	-0.497379;
	261	0.418749	0.418749	-0.65632	-0.65632;
	262	-0.22928	-0.22928	0.434099	0.434099;
	270	     0	0	     0	0;
	271	-0.263246	-0.263631	0.0100486	0.0100342;
	278	1.92008	1.92008	-1.18984	-1.18984;
	279	     0	0	     0	0;
	283	-0.212872	-0.213161	0.38961	0.389032;
	284	5.46069	5.46069	-3.37274	-3.37274;
	286	     0	0	     0	0;
	287	     0	0	     0	0;
	288	-0.557758	-0.558565	0.729932	0.728901;
	291	-1.02221	-1.02221	0.107962	0.107962;
	292	-0.545061	-0.545771	0.350801	0.350305;
	294	-0.337602	-0.337602	0.575594	0.575594;
	295	6.75188e-10	-6.62967e-10	7.34419e-10	-6.79825e-10;
	298	-0.468073	-0.468073	0.393091	0.393091;
	303	-0.0896085	-0.0896085	0.128406	0.128406;
	304	     0	0	     0	0;
	305	     0	0	     0	0;
	307	-0.207335	-0.207335	-0.0111646	-0.0111646;
	310	1.49604	1.49388	-0.699526	-0.700492;
	311	     0	0	     0	0;
	316	-0.0825627	-0.0825627	0.020536	0.020536;
	317	-1.34176	-1.34176	1.15044	1.15044;
	318	     0	0	     0	0;
	320	-1.46389	-1.46584	1.39999	1.39808;
	321	0.0497602	0.0497602	-0.0405135	-0.0405135;
	322	1.22558	1.22377	-1.09382	-1.09531;
	329	8.01857	8.00796	-0.91097	-0.912241;
	336	-0.35919	-0.359655	0.81507	0.813825;
	337	-2.83848	-2.83848	2.62726	2.62726;
	340	-2.53326	-2.53326	1.03214	1.03214;
	345	-0.287224	-0.287224	0.0724597	0.0724597;
	354	-0.412743	-0.413339	0.388077	0.38755;
	357	0.114478	0.114478	-0.0672584	-0.0672584;
	359	-1.55546	-1.55778	1.2196	1.21776;
	369	     0	0	     0	0;
	371	     0	0	     0	0;
	374	2.22736	2.22736	-1.97813	-1.97813;
	375	-0.826492	-0.82777	0.264588	0.26425;
	376	-1.67899	-1.67899	0.847539	0.847539;
	388	0.00371363	0.00371363	-0.00922602	-0.00922602;
	393	7.25781e-10	-6.63684e-10	7.64471e-10	-7.69687e-10;
	400	-0.210522	-0.210822	0.0592021	0.0591178;
	402	7.51273e-10	-7.77868e-10	6.78573e-10	-7.19773e-10;
	404	-0.643858	-0.644716	0.754106	0.753;
	408	-1.11399	-1.11399	1.66455	1.66455;
	409	-0.0402419	-0.0402923	0.0448508	0.0447861;
	412	7.62704e-10	-7.04672e-10	7.92386e-10	-6.51802e-10;
	414	-1.47033	-1.47033	-0.0859525	-0.0859525;
	421	0.549608	0.549608	-0.48772	-0.48772;
	422	6.96285e-10	-7.13774e-10	6.95144e-10	-7.22698e-10;
	424	     0	0	     0	0;
	428	0.029688	0.029688	-0.0172492	-0.0172492;
	431	    -0	-0	     0	0;
	433	0.118284	0.118284	-0.265887	-0.265887;
	434	     0	0	     0	0;
	436	-0.228619	-0.228619	0.188856	0.188856;
	442	4.5154	4.5154	-4.18213	-4.18213;
	445	     0	0	     0	0;
	446	-0.203472	-0.203472	0.34243	0.34243;
	447	-0.109027	-0.109027	0.449907	0.449907;
	449	-0.0710149	-0.0710149	0.207439	0.207439;
	451	0.453581	0.452958	-0.130092	-0.130275;
	452	-1.30244	-1.30244	1.69329	1.69329;
	454	-2.30152	-2.30468	2.17833	2.17529;
	457	12.6117	12.6117	-8.34374	-8.34374;
	460	     0	0	     0	0;
	462	-0.228838	-0.228838	0.033678	0.033678;
	467	0.54972	0.54972	-0.255231	-0.255231;
	468	-0.429644	-0.429644	0.710041	0.710041;
	470	-0.638236	-0.639059	0.465882	0.465198;
	471	     0	0	     0	0;
	478	7.02502e-10	-7.85418e-10	7.93963e-10	-7.68452e-10;
	482	0.09093	0.09093	-0.0760482	-0.0760482;
	486	-1.00147	-1.00147	0.78016	0.78016;
	488	-0.345489	-0.345489	0.231779	0.231779;
	490	-1.80565	-1.80838	2.31924	2.31574;
	495	-0.5718	-0.5718	0.52878	0.52878;
	497	-1.39747	-1.39747	0.586663	0.586663;
	501	     0	0	     0	0;
	502	     0	0	     0	0;
	503	0.0385148	0.0385148	-0.110653	-0.110653;
	507	     0	0	     0	0;
	508	-0.113587	-0.113736	0.383669	0.38309;
	510	0.465268	0.465268	-0.195575	-0.195575;
	515	     0	0	     0	0;
	516	-1.44857	-1.44857	0.310865	0.310865;
	521	0.00382065	0.00382065	-0.00987507	-0.00987507;
	522	-0.316975	-0.316975	0.612276	0.612276;
	531	0.257876	0.257876	-0.0589223	-0.0589223;
	533	11.8991	11.8991	-2.92825	-2.92825;
	538	-0.473811	-0.474446	0.132706	0.132519;
	541	7.80652	7.80652	-3.07833	-3.07833;
	543	-0.50305	-0.50305	-0.387655	-0.387655;
	544	7.08384e-10	-6.38549e-10	7.82636e-10	-6.28228e-10;
	551	     0	0	     0	0;
	552	7.93846e-10	-7.07689e-10	7.13337e-10	-7.09197e-10;
	553	8.35909	8.34844	-1.26805	-1.26987;
	558	     0	0	     0	0;
	561	-0.222077	-0.222077	0.258738	0.258738;
	563	0.283106	0.283106	-0.145805	-0.145805;
	572	-0.0359907	-0.0359907	0.0830294	0.0830294;
	573	     0	0	     0	0;
	575	-0.514098	-0.514098	-0.0581327	-0.0581327;
	576	-0.831559	-0.832789	0.302462	0.302049;
	580	-0.619132	-0.619132	0.244293	0.244293;
	582	-0.26292	-0.26292	0.484588	0.484588;
	590	-1.09998	-1.09998	1.48178	1.48178;
	595	-0.433774	-0.433774	0.817937	0.817937;
	597	-0.502149	-0.502149	0.147735	0.147735;
	598	-0.241506	-0.241865	0.120708	0.120554;
	603	-0.193206	-0.193206	-0.0261611	-0.0261611;
	605	-0.225719	-0.225719	0.483937	0.483937;
	606	1.79868	1.79868	-1.40906	-1.40906;
	608	-0.27428	-0.27428	0.146776	0.146776;
	611	-0.972611	-0.972611	0.364175	0.364175;
	613	-1.83358	-1.83358	0.519555	0.519555;
...
];

%% RTU injection data (confidence intervals around measurements)
%	bus_i	P_MIN	P_MAX	Q_MIN	Q_MAX	V_MIN	V_MAX
mpc.RTU = [
	1	 -1.55959	-1.44968929	-0.503874	-0.470169951	1.0127418	1.01971997;
	2	 -1.76934	-1.65636197	-0.242027	-0.225065457	1.02259617	1.02982241;
	3	 -1.38061	-1.29704864	-0.254688	-0.237549759	1.03455041	1.04106085;
	4	-0.619241	-0.574116787	-0.275077	-0.258043369	1.02020033	1.02751764;
	5	 -1.66746	-1.54807334	-0.408341	-0.377594837	1.03181566	1.03895142;
	7	 -1.73983	-1.6169088	-0.569506	-0.530986728	1.02872949	1.0367287;
	8	 -1.58499	-1.47311075	-0.513159	-0.47717645	0.994346508	1.00164062;
	9	0.0770312	0.0828393224	 0.365522	0.391523019	1.00240649	1.00993822;
	10	0.0513142	0.0549167584	0.00574796	0.00614003617	1.02846728	1.03511266;
	11	-0.442395	-0.412439765	-0.132459	-0.123985155	1.0243976	1.03183607;
	12	  0.33176	0.356715136	0.0501359	0.0536654571	1.00158739	1.00932883;
	17	-0.501366	-0.467777867	-0.167249	-0.155189695	1.0565303	1.06421302;
	19	  -1.2311	-1.15101549	-0.213509	-0.199529571	1.02817214	1.03533935;
	20	-0.648216	-0.607211252	 -0.21125	-0.197421327	1.0091602	1.01548065;
	21	 -1.30857	-1.22425333	-0.437983	-0.407716327	1.0339197	1.04124917;
	23	-0.401256	-0.372431234	-0.0628738	-0.0589807003	1.02104692	1.02815318;
	24	-0.229816	-0.212541265	-0.110895	-0.103548359	1.02466133	1.03174258;
	29	0.0808975	0.0866710783	-0.295768	-0.275248214	1.03132559	1.03839463;
	34	-0.244642	-0.228210376	-0.131577	-0.122599477	1.01676454	1.02403139;
	39	   7.3888	7.88919512	-0.695851	-0.643260982	1.00024026	1.00712398;
	42	 -0.39863	-0.369082471	-0.0578616	-0.0540748923	1.03903899	1.04549853;
	43	-0.334013	-0.311482199	-0.124558	-0.115846114	1.03843355	1.04563445;
	45	 -1.53421	-1.4301413	-0.338624	-0.315533425	1.03935375	1.04674656;
	48	 -1.15358	-1.07599861	-0.113459	-0.106181467	1.01351053	1.02009576;
	49	 -3.84362	-3.57284134	 0.164334	0.175903516	1.06919118	1.07749578;
	50	-0.978417	-0.920289884	-0.373507	-0.348980344	0.969947131	0.977153293;
	53	-0.382537	-0.355867648	-0.143646	-0.134095651	1.01504175	1.02201067;
	54	  2.59184	2.77692811	 0.420247	0.448554337	1.02578888	1.0335475;
	57	-0.411675	-0.382267532	-0.122341	-0.113945601	1.01224243	1.01942091;
	60	-0.478114	-0.445979327	-0.187852	-0.176444815	1.00565118	1.01229752;
	61	 -3.32482	-3.1105626	-0.876137	-0.810886649	1.02377501	1.03151753;
	62	-0.781138	-0.725931716	-0.197782	-0.186049395	1.02914691	1.0357046;
	63	 -1.60696	-1.50187092	-0.568391	-0.525748925	1.0353113	1.04231728;
	65	-0.721482	-0.670475987	-0.157195	-0.146595254	1.03888477	1.04601274;
	66	 -1.60457	-1.50647848	 0.564149	0.609360362	0.992974461	0.999226536;
	68	 0.226349	0.241885679	-0.596028	-0.551468343	1.0404615	1.04841502;
	69	 -1.56988	-1.46741762	-0.232681	-0.218418246	1.00379601	1.01032415;
	70	0.00125521	0.00134554308	0.00966743	0.010358448	1.0159306	1.02345826;
	71	-0.475939	-0.443548219	-0.0722228	-0.0674577927	1.02517046	1.03278667;
	77	-0.402754	-0.373629326	-0.093087	-0.0872645281	1.01197566	1.01843881;
	80	0.00125771	0.00134448779	0.00966925	0.0103977566	1.04247089	1.05065647;
	81	 -1.00143	-0.932622022	-0.276496	-0.259900208	1.03662905	1.04318176;
	82	  -1.0577	-0.981496613	-0.263057	-0.243427318	1.01033844	1.01672305;
	83	  -1.2339	-1.1524158	-0.305443	-0.286720558	1.02976484	1.03702876;
	85	-0.283184	-0.264481616	-0.123735	-0.114452949	1.03285487	1.03990659;
	86	 -1.97682	-1.84117133	0.0329264	0.0352421365	1.02021693	1.02792485;
	87	-0.142527	-0.133904427	-0.0145556	-0.0135689089	1.04426164	1.05088309;
	90	-0.0227439	-0.021191558	-0.00515949	-0.00484890057	0.991052625	0.997687128;
	93	-0.433786	-0.404747238	-0.177259	-0.166714211	1.0001356	1.0068251;
	94	0.00153669	0.0016554605	0.0280583	0.0302219861	1.05177732	1.05968234;
	95	 -1.68381	-1.57771828	-0.477016	-0.444666488	0.997805433	1.00451852;
	100	 -5.40783	-5.0716676	-0.442982	-0.413200943	1.00958655	1.01633465;
	103	 -2.04884	-1.91365081	-0.498438	-0.465367703	1.03549051	1.04283647;
	105	 -1.14737	-1.06176395	-0.271987	-0.253955135	1.03887968	1.04641873;
	106	0.00144554	0.00155252624	0.0187147	0.0199042035	1.02476518	1.03161895;
	107	  12.1142	12.8879259	  2.70537	2.90071854	1.05060726	1.05870211;
	109	-0.673399	-0.626495071	 0.496012	0.535151298	1.06741057	1.07517433;
	112	0.00173156	0.00186572893	0.00960749	0.0103312762	1.01834098	1.02474006;
	113	 0.927658	0.993622354	0.0270649	0.0289168404	1.00061532	1.00810848;
	116	 0.669177	0.71528539	 0.165065	0.177207892	1.0174998	1.02433927;
	121	 -1.77607	-1.65004532	-0.521142	-0.487394614	1.03161419	1.03892634;
	123	-0.0488412	-0.0452613433	-0.00727176	-0.00678293483	1.02553947	1.03287861;
	124	-0.734513	-0.678565628	-0.139466	-0.130439299	1.03855131	1.0457005;
	127	 -1.27122	-1.19384137	-0.0670926	-0.0624075785	1.03648106	1.04373095;
	129	-0.279354	-0.261140549	 0.217231	0.231688265	1.01630496	1.02307161;
	131	 0.800398	0.857582009	-0.00842671	-0.00781457322	1.02538198	1.03259264;
	133	-0.418056	-0.390400831	0.0600277	0.0644959651	1.00987145	1.01735947;
	135	-0.381092	-0.354354074	-0.106244	-0.0993833678	1.01830979	1.02548249;
	137	  2.52214	2.67929306	  0.55848	0.597219748	1.01778148	1.02420901;
	144	-0.0724904	-0.0675872874	-0.0207646	-0.0192440319	1.01189599	1.01874432;
	145	 -1.11478	-1.03601418	0.0333416	0.03574249	1.00936943	1.0158555;
	146	-0.212921	-0.197819989	-0.0413519	-0.0385490295	1.03232003	1.04030486;
	151	-0.803515	-0.742717168	-0.0726342	-0.0677200216	1.01245866	1.01950439;
	152	-0.594787	-0.553206197	-0.176344	-0.165078915	1.03490566	1.04256653;
	153	  5.21517	5.55723663	  1.82571	1.94609741	1.07051963	1.0786905;
	154	 -2.13873	-1.99613623	-0.0969798	-0.0903917816	1.02341586	1.03031858;
	156	 -1.96067	-1.83022526	-0.771535	-0.722093845	1.03998867	1.04728997;
	157	 -2.86146	-2.67768413	-0.470229	-0.440208608	1.01112271	1.0179958;
	158	-0.910264	-0.843600072	0.0135356	0.0144679209	1.05585355	1.06358428;
	159	 -0.59833	-0.557412768	-0.195853	-0.182129758	1.01041497	1.01740233;
	160	-0.823535	-0.768366404	-0.409389	-0.380407178	1.03551655	1.042226;
	161	-0.319774	-0.29998594	-0.0925003	-0.085919531	1.02960205	1.03654339;
	164	 -1.87366	-1.75101371	-0.940722	-0.876076727	0.965705163	0.972617756;
	166	-0.170896	-0.159245409	-0.0927098	-0.0867654479	1.03299178	1.04041543;
	167	0.00173752	0.00185592979	0.0345799	0.0368872723	1.01366867	1.02116744;
	170	-0.534359	-0.500476129	0.0784713	0.0842172103	1.06585152	1.07366819;
	172	0.00126056	0.00134353921	0.00963689	0.0103705926	1.04207035	1.04994531;
	173	-0.178775	-0.167300568	-0.0685117	-0.0636274732	1.01823426	1.02495054;
	174	 -2.80701	-2.61485081	 0.069388	0.0742620959	1.04019424	1.04726396;
	175	-0.218642	-0.203548915	-0.0855511	-0.0804728942	1.02860297	1.03620299;
	177	-0.702363	-0.649170288	-0.176676	-0.164572681	1.03472	1.0415605;
	179	-0.344078	-0.320661474	-0.162797	-0.15207228	1.05512262	1.06329631;
	181	 -1.14209	-1.07361374	 0.084822	0.0906780453	1.02026418	1.02707872;
	182	-0.344132	-0.321630891	-0.045434	-0.042257838	0.992856359	1.00066799;
	186	 0.369369	0.395369238	0.00864218	0.00932550589	1.06213103	1.07010642;
	188	  6.45924	6.93758588	-0.0228952	-0.0214136201	1.02472458	1.03134403;
	191	  1.47356	1.58419153	 0.487477	0.518922087	0.981206282	0.988049251;
	192	-0.480433	-0.446887468	  1.23315	1.3167331	1.04227235	1.04951897;
	193	 -0.47008	-0.439102542	 -0.19207	-0.179227087	1.03515576	1.04158196;
	194	 0.613718	0.654583675	-0.0355361	-0.0331556329	1.03325272	1.04035436;
	196	 -0.42355	-0.395664085	-0.199059	-0.18452303	1.02182023	1.02904463;
	197	-0.178903	-0.166761911	-0.045701	-0.0424866661	1.01729531	1.02424873;
	203	0.0542247	0.057899344	0.0270358	0.0289677853	1.02350604	1.03079421;
	204	 -1.13266	-1.05939986	 -0.36736	-0.342960798	1.01127526	1.01868526;
	210	-0.999751	-0.92971454	-0.273277	-0.255490724	0.99833915	1.00487155;
	214	 -1.18818	-1.10274547	-0.236116	-0.220597281	1.00973193	1.01734006;
	215	-0.869004	-0.808012771	-0.219197	-0.203563738	1.04813368	1.05579139;
	216	 0.154297	0.164901851	 0.582394	0.626856323	1.06829627	1.07597907;
	218	 -1.14083	-1.0684042	-0.432751	-0.403192965	1.00642125	1.01347959;
	219	 -1.39492	-1.29728013	-0.425023	-0.394969725	1.02880031	1.0365807;
	225	  4.48538	4.82427663	 0.720923	0.774950745	1.03673917	1.04452136;
	228	  1.91478	2.0656488	0.0641049	0.0684809948	1.05145957	1.05894436;
	230	 0.633996	0.679806	0.0679886	0.0728758759	1.01955672	1.02737493;
	232	  1.12187	1.21099889	  1.17739	1.25479483	1.01287476	1.02027335;
	235	 -3.57522	-3.33555599	 -1.47193	-1.37079129	1.02808789	1.03548975;
	236	 0.529704	0.573097581	 0.263199	0.280896461	1.04668706	1.05399411;
	237	 -1.15168	-1.07674288	0.0978611	0.104972596	1.02594376	1.03266431;
	238	 0.158794	0.1707286	0.0481646	0.0517058426	1.04705185	1.05473366;
	239	 0.491025	0.527979952	 0.173304	0.186501376	1.00281709	1.00992409;
	240	  0.25183	0.270295065	 0.141385	0.152093048	1.02313046	1.03006237;
	243	0.00144657	0.00155770541	0.00960169	0.0103952903	1.05356486	1.06151046;
	246	-0.0207853	-0.0193100996	 -1.18396	-1.10079116	1.01653694	1.0235591;
	247	-0.521054	-0.485572583	-0.186862	-0.174237519	1.03259027	1.03959963;
	250	 -1.29081	-1.20635568	-0.306647	-0.284571867	1.04953875	1.05703916;
	253	-0.252842	-0.236197459	-0.0891315	-0.0833683534	1.01956349	1.02689888;
	255	 -2.97964	-2.7675733	-0.168241	-0.157223479	1.02008782	1.02761582;
	263	  8.23443	8.82077061	  1.57754	1.69177487	1.0314842	1.03843325;
	264	-0.976261	-0.904684351	-0.0567645	-0.0529155616	1.02079156	1.02831814;
	265	 -1.13402	-1.0569816	-0.0350321	-0.0328753395	1.03600868	1.04338894;
	266	 -1.12744	-1.0548074	  0.21008	0.225515128	1.04966971	1.0572078;
	268	  -1.9916	-1.85886552	-0.808768	-0.753107434	1.01563702	1.02278995;
	269	  16.4752	17.6117869	   6.3335	6.76287102	1.05909062	1.06650769;
	273	-0.856765	-0.801397605	-0.208277	-0.193771387	1.06913563	1.07656084;
	274	 -6.56279	-6.1163372	 0.520632	0.560115572	1.03078498	1.03772995;
	276	 -1.29715	-1.21445493	0.00484928	0.00517690968	1.05838945	1.06656869;
	277	   12.109	12.9769872	   7.2493	7.73130055	1.02905872	1.0366098;
	280	-0.357858	-0.332697378	-0.0880727	-0.0816765032	1.04018338	1.0477727;
	281	-0.642526	-0.599241293	-0.151686	-0.141286115	1.03189834	1.03948154;
	282	 -1.17375	-1.08991808	-0.200243	-0.186474347	1.00863423	1.01567789;
	285	-0.800014	-0.745595634	-0.127726	-0.119081545	1.0272878	1.03487612;
	289	 -0.16407	-0.152796416	-0.041495	-0.0385673629	0.987367145	0.994462598;
	290	-0.714473	-0.663895431	-0.234712	-0.217025825	1.01130761	1.01836918;
	293	 -2.53383	-2.36195759	 -1.58288	-1.47163076	1.00656741	1.01294;
	296	-0.441195	-0.408738889	-0.176487	-0.165064079	1.0365539	1.04370329;
	297	-0.917128	-0.85450478	-0.171009	-0.159827278	1.00997954	1.01727497;
	299	  11.8403	12.5998296	  3.94138	4.22907551	1.06485139	1.07226112;
	300	 0.206462	0.219622849	 0.343804	0.36686148	1.02625449	1.03350906;
	301	-0.151851	-0.141686156	-0.0476608	-0.0445440386	1.04239287	1.04882713;
	309	 0.884172	0.954114797	 0.566592	0.606935863	1.06918236	1.07741499;
	312	-0.221073	-0.205460867	-0.0758903	-0.0705697528	1.02202793	1.02880637;
	313	0.00192411	0.0020649472	0.00967294	0.0103978374	1.01994184	1.02682209;
	314	 -1.40771	-1.31443171	-0.420055	-0.389098736	0.991841918	0.999208764;
	315	-0.463222	-0.430236019	-3.82146e-08	3.90478883e-08	1.04905812	1.05600095;
	319	 -2.49791	-2.321725	0.0241397	0.0258276653	1.02449886	1.03205699;
	323	-0.271218	-0.255289992	-0.0548758	-0.0512717138	1.03613702	1.04338747;
	324	 -3.94683	-3.68567696	-0.599312	-0.557999151	1.06313859	1.07047502;
	325	  1.96269	2.10180601	0.0003656	0.000391662208	1.03468729	1.04213287;
	327	-0.359247	-0.334751963	-3.40394e-08	3.57441752e-08	1.02993539	1.03731175;
	328	 -0.33003	-0.30705374	-0.0907085	-0.0853070924	1.03835986	1.04599231;
	330	-0.485484	-0.455102191	-0.199697	-0.186920646	0.993257016	0.999899759;
	332	-0.700476	-0.653351858	   -0.337	-0.316098938	1.0336863	1.04092277;
	335	 -2.22201	-2.08662378	0.0733112	0.078981918	1.01992618	1.02726854;
	341	 0.886109	0.952924499	 0.101664	0.109007309	1.04222125	1.04965496;
	342	-0.123869	-0.115670039	-0.0578536	-0.0537722984	1.02691995	1.03429959;
	343	-0.580854	-0.541025855	-0.194372	-0.180156642	1.00603333	1.01277802;
	344	  8.06625	8.64356688	 0.918321	0.981866183	1.02289791	1.02996796;
	347	 0.561712	0.600656625	0.0519384	0.0555651232	1.04157361	1.04916244;
	349	 -1.28018	-1.20199933	 0.219675	0.234201884	1.04774551	1.05540421;
	350	-0.309936	-0.286438192	-0.0757924	-0.0702416169	1.07093847	1.07818083;
	351	 -2.00015	-1.85565761	-0.662657	-0.617210085	1.0350828	1.04318062;
	352	 0.523598	0.558958772	-0.135941	-0.126915371	1.02322598	1.03061181;
	355	 0.389205	0.419567642	-0.0961838	-0.0895089075	1.02202552	1.02925419;
	356	   2.7826	2.98672669	-0.108306	-0.100796498	1.01579326	1.02275077;
	360	 -1.19431	-1.10660564	 -3.31888	-3.08910619	1.057792	1.06437808;
	361	  -0.1674	-0.156907754	-0.0207493	-0.0193810747	1.02957553	1.03594545;
	363	-0.340765	-0.31765911	-3.82011e-08	3.6892842e-08	1.02400703	1.03074466;
	365	-0.127913	-0.120065721	-0.0402838	-0.0377094545	1.03474477	1.04233843;
	367	-0.676721	-0.630584419	-0.247416	-0.232575958	1.03446501	1.04160404;
	368	 -1.16889	-1.08633983	-0.134059	-0.124833591	1.04796068	1.05505553;
	372	 -1.28711	-1.2039662	0.0406296	0.0437476862	1.0226712	1.03009127;
	373	 0.258066	0.277719212	0.0619308	0.0661255566	1.00091095	1.00867501;
	377	 -1.55618	-1.45303463	-0.158821	-0.14750913	1.01082405	1.01772488;
	378	-0.697591	-0.649467949	-0.219655	-0.204407044	1.03127166	1.03863235;
	379	 -0.31888	-0.29746929	-0.0680948	-0.0640103743	1.05227006	1.05964093;
	380	 -1.34332	-1.25662159	-0.137071	-0.127922116	1.0347707	1.04267398;
	382	 -1.28923	-1.19859945	-0.0818402	-0.0762216041	1.02534984	1.03233018;
	383	 -1.18285	-1.10608026	-0.243616	-0.226728711	1.0414341	1.04877706;
	384	0.0018244	0.00196636268	0.00965431	0.0103212705	1.02084107	1.02754065;
	385	-0.729742	-0.677711051	-0.298169	-0.278347955	0.999300608	1.00585957;
	387	 -2.37917	-2.21559439	-0.943193	-0.88235484	1.01766836	1.0248377;
	391	-0.741211	-0.691562568	-0.184862	-0.172034608	1.01764921	1.02452846;
	392	  14.5597	15.6313058	  3.42645	3.70947105	1.10113129	1.10837974;
	394	 -0.24301	-0.226241848	-0.0412211	-0.0386412492	1.01978697	1.02686108;
	395	 0.444119	0.479452569	-0.00686793	-0.00640041533	1.01738956	1.02478461;
	397	 -3.61824	-3.36166473	-0.274947	-0.255670372	1.0162256	1.02379533;
	398	-0.406305	-0.38077865	-0.258195	-0.241231884	0.989616974	0.996179458;
	399	  8.04532	8.67485588	 0.863494	0.92959999	1.02320404	1.03002835;
	401	-0.528667	-0.488738381	-0.378305	-0.351977894	1.00303038	1.00975758;
	403	 -1.79466	-1.67133207	 0.204879	0.219450392	1.06204579	1.06948064;
	405	-0.543633	-0.508275752	-0.0301055	-0.0278802158	1.0269601	1.03394431;
...
];

%% generator data
%	bus	Pg	Qg	Qmax	Qmin	Vg	mBase	status	Pmax	Pmin	Pc1	Pc2	Qc1min	Qc1max	Qc2min	Qc2max	ramp_agc	ramp_10	ramp_30	ramp_q	apf
mpc.gen = [
	9	8	37.915512	5.91	-4.56	1.006206	100	1	16.2	0	0	0	0	0	0	0	0	0	0	0	0;
	10	5.3	0.595316917	2.27	-1.08	1.031909	100	1	5.38	0	0	0	0	0	0	0	0	0	0	0	0;
	12	34.3	5.19995033	17.76	-7.14	1.005551	100	1	40	0	0	0	0	0	0	0	0	0	0	0	0;
	15	-144.5	4.88929252	5.48	-4.19	1.01198	100	1	100	-192.67	0	0	0	0	0	0	0	0	0	0	0;
	33	861.3	51.3273124	440.32	-172.59	1.079291	100	1	1000	333.33	0	0	0	0	0	0	0	0	0	0	0;
	44	67.29	-4.00795591	77.09	-22.54	1.062067	100	1	160	0	0	0	0	0	0	0	0	0	0	0	0;
	51	-179.2	110.785374	52.64	-51.72	1.048817	100	1	100	-238.93	0	0	0	0	0	0	0	0	0	0	0;
	54	268.6	43.3374987	130.19	-53.53	1.029584	100	1	300	100	0	0	0	0	0	0	0	0	0	0	0;
	59	5.2	5.32554823	2.27	-1.07	1.024675	100	1	5.37	0	0	0	0	0	0	0	0	0	0	0	0;
	66	-155.39	58.6712784	183.92	-65.3	0.996091	100	1	100	-207.18	0	0	0	0	0	0	0	0	0	0	0;
	89	975.9	131.003033	721.25	-258.71	1.046197	100	1	1600	533.33	0	0	0	0	0	0	0	0	0	0	0;
	101	83.7	1.69781707	55.54	-19.16	1.049578	100	1	120	0	0	0	0	0	0	0	0	0	0	0	0;
	107	1250.4	281.310472	926.35	-297.68	1.054691	100	1	2000	666.67	0	0	0	0	0	0	0	0	0	0	0;
	116	69	17.1630018	56.73	-17.84	1.020856	100	1	120	0	0	0	0	0	0	0	0	0	0	0	0;
	122	231	26.1115128	124.12	-49.84	1.052152	100	1	280	0	0	0	0	0	0	0	0	0	0	0	0;
	131	83.1	-0.810375856	55.73	-19.01	1.029422	100	1	120	0	0	0	0	0	0	0	0	0	0	0	0;
	133	-40.35	6.24487989	1.95	-0.93	1.013689	100	1	100	-53.8	0	0	0	0	0	0	0	0	0	0	0;
	137	260.1	57.8166386	257.23	-74.4	1.021096	100	1	540	0	0	0	0	0	0	0	0	0	0	0	0;
	145	-107.4	3.46531132	6.28	-4.82	1.012805	100	1	100	-143.2	0	0	0	0	0	0	0	0	0	0	0;
	153	539.4	188.634125	261.79	-106.67	1.074804	100	1	600	200	0	0	0	0	0	0	0	0	0	0	0;
	170	-51.67	8.14283392	18.47	-19.35	1.069692	100	1	100	-68.89	0	0	0	0	0	0	0	0	0	0	0;
	174	-270	7.18416852	17.88	-7.03	1.043394	100	1	100	-360	0	0	0	0	0	0	0	0	0	0	0;
	186	38.2	0.900094504	17.09	-7.79	1.06611	100	1	40	0	0	0	0	0	0	0	0	0	0	0	0;
	187	379.2	44.647753	217.9	-81.16	1.049295	100	1	480	160	0	0	0	0	0	0	0	0	0	0	0;
	188	670.3	-2.21604036	351.18	-139.11	1.028233	100	1	800	266.67	0	0	0	0	0	0	0	0	0	0	0;
	191	152.4	50.2816521	78.79	-31.69	0.98494	100	1	180	0	0	0	0	0	0	0	0	0	0	0	0;
	192	-46.2	127.24083	135.52	-38.9	1.046182	100	1	100	-61.6	0	0	0	0	0	0	0	0	0	0	0;
	194	63.33	-3.44924478	90.13	-93.03	1.036757	100	1	276.09	0	0	0	0	0	0	0	0	0	0	0	0;
	206	37.4	8.13352794	38.77	-11.06	1.065269	100	1	80	0	0	0	0	0	0	0	0	0	0	0	0;
	207	-21.65	-6.10645202	34.75	-34.26	1.018064	100	1	100	-28.86	0	0	0	0	0	0	0	0	0	0	0;
	211	274.8	12.4296223	129.94	-53.91	1.001541	100	1	300	100	0	0	0	0	0	0	0	0	0	0	0;
	216	16	60.3750387	22.23	-20.83	1.072146	100	1	65.3	0	0	0	0	0	0	0	0	0	0	0	0;
	225	465.7	74.7597155	212.97	-93.45	1.040583	100	1	500	166.67	0	0	0	0	0	0	0	0	0	0	0;
	228	198.88	6.63627528	105.69	-43.84	1.0548	100	1	240	0	0	0	0	0	0	0	0	0	0	0	0;
	230	65.9	7.05909148	136.94	-47.24	1.023645	100	1	300	0	0	0	0	0	0	0	0	0	0	0	0;
	232	116.7	121.566287	51.3	-23.41	1.016623	100	1	120	0	0	0	0	0	0	0	0	0	0	0	0;
	237	-111.4	10.1294896	18.16	-6.73	1.029038	100	1	100	-148.53	0	0	0	0	0	0	0	0	0	0	0;
	238	16.5	4.98476793	12.37	-9.36	1.051035	100	1	33.58	0	0	0	0	0	0	0	0	0	0	0	0;
	239	50.8	18.0324864	37.43	-12.32	1.006139	100	1	80	0	0	0	0	0	0	0	0	0	0	0	0;
	245	58.4	7.84605872	36.75	-13.04	1.039638	100	1	80	0	0	0	0	0	0	0	0	0	0	0	0;
	248	-89.2	11.9881693	74.03	-25.54	1.04396	100	1	100	-118.93	0	0	0	0	0	0	0	0	0	0	0;
	252	1597.5	-18.2995103	864.47	-360.97	1.057043	100	1	2000	666.67	0	0	0	0	0	0	0	0	0	0	0;
	257	1274.2	284.246086	926.68	-298.31	1.044347	100	1	2000	666.67	0	0	0	0	0	0	0	0	0	0	0;
	260	8.7	61.3227665	6.45	-4.91	1.041392	100	1	17.57	0	0	0	0	0	0	0	0	0	0	0	0;
	261	59.56	50.8903572	96.64	-27.81	1.006263	100	1	200	0	0	0	0	0	0	0	0	0	0	0	0;
	263	855.6	163.691541	440.67	-172.15	1.035299	100	1	1000	333.33	0	0	0	0	0	0	0	0	0	0	0;
	269	1702.8	655.510358	1097.41	-373.91	1.063198	100	1	2400	800	0	0	0	0	0	0	0	0	0	0	0;
	277	1249.4	749.977638	772.11	-269.94	1.032774	100	1	1700	566.67	0	0	0	0	0	0	0	0	0	0	0;
	278	230.2	-22.619346	134.45	-49.76	1.024009	100	1	300	0	0	0	0	0	0	0	0	0	0	0	0;
	284	679.6	-65.5545017	406.66	-144.75	1.063763	100	1	900	300	0	0	0	0	0	0	0	0	0	0	0;
	299	1221.2	406.851653	934.73	-291.52	1.068998	100	1	2000	666.67	0	0	0	0	0	0	0	0	0	0	0;
	300	21.3	35.4807795	36.02	-35.35	1.029847	100	1	107.83	0	0	0	0	0	0	0	0	0	0	0	0;
	309	92.1	58.5529803	55.02	-19.81	1.073365	100	1	120	0	0	0	0	0	0	0	0	0	0	0	0;
	310	171	16.3894573	89.55	-35.15	1.040649	100	1	200	0	0	0	0	0	0	0	0	0	0	0	0;
	317	-179.3	17.2273441	58.34	-16.23	1.019135	100	1	100	-239.07	0	0	0	0	0	0	0	0	0	0	0;
	322	164.94	17.4648694	71.66	-27.89	1.00979	100	1	400	100	0	0	0	0	0	0	0	0	0	0	0;
	325	202.5	0.0378596837	137.39	-46.45	1.038657	100	1	300	100	0	0	0	0	0	0	0	0	0	0	0;
	329	829.5	42.0686674	387.88	-163.4	1.029789	100	1	900	300	0	0	0	0	0	0	0	0	0	0	0;
	341	91.8	10.5422087	54.91	-19.88	1.046149	100	1	120	0	0	0	0	0	0	0	0	0	0	0	0;
	344	837	94.7825683	550.69	-185.15	1.026457	100	1	1200	400	0	0	0	0	0	0	0	0	0	0	0;
	347	58.2	5.37407642	36.8	-13.01	1.045212	100	1	80	0	0	0	0	0	0	0	0	0	0	0	0;
	349	-124.15	22.7324563	38.05	-11.59	1.051902	100	1	100	-165.54	0	0	0	0	0	0	0	0	0	0	0;
	356	289.79	-10.4736046	158.2	-62.81	1.019674	100	1	360	0	0	0	0	0	0	0	0	0	0	0	0;
	372	-124.7	4.2087557	1.85	-0.88	1.026125	100	1	100	-166.27	0	0	0	0	0	0	0	0	0	0	0;
	373	26.8	6.38943211	18.61	-6.28	1.004865	100	1	40	0	0	0	0	0	0	0	0	0	0	0	0;
	374	309.54	13.0834693	108.35	-39.12	1.040018	100	1	700	200	0	0	0	0	0	0	0	0	0	0	0;
	392	1504.8	356.865275	906.61	-319.44	1.105045	100	1	2000	666.67	0	0	0	0	0	0	0	0	0	0	0;
	395	46.13	-0.660946657	22.29	-20.98	1.021438	100	1	65.63	0	0	0	0	0	0	0	0	0	0	0	0;
	399	837	89.6211343	550.69	-185.15	1.0265	100	1	1200	400	0	0	0	0	0	0	0	0	0	0	0;
	404	-100.5	-6.14936446	32.54	-32.11	1.015573	100	1	100	-134	0	0	0	0	0	0	0	0	0	0	0;
	410	-124.1	10.3833471	36.92	-12.88	1.038943	100	1	100	-165.47	0	0	0	0	0	0	0	0	0	0	0;
	421	67.2	34.8824522	57.03	-17.62	1.030396	100	1	120	0	0	0	0	0	0	0	0	0	0	0	0;
	427	-246.5	22.4748695	38.08	-11.73	1.04168	100	1	100	-328.67	0	0	0	0	0	0	0	0	0	0	0;
	433	26.2	14.4952299	18.74	-6.17	1.028915	100	1	40	0	0	0	0	0	0	0	0	0	0	0	0;
	439	-174.6	31.7747831	11.64	-10.2	1.052722	100	1	100	-232.8	0	0	0	0	0	0	0	0	0	0	0;
	442	628.19	-57.1997252	338.66	-151.76	1.024907	100	1	800	266.67	0	0	0	0	0	0	0	0	0	0	0;
	448	-101	16.6562037	18.09	-6.79	1.045292	100	1	100	-134.67	0	0	0	0	0	0	0	0	0	0	0;
	451	49.4	2.91117227	37.72	-12.09	1.049261	100	1	80	0	0	0	0	0	0	0	0	0	0	0	0;
	457	1588	-127.685529	895.23	-330.78	1.05352	100	1	2000	666.67	0	0	0	0	0	0	0	0	0	0	0;
	465	783.9	-100.220817	394.45	-157	1.025403	100	1	900	300	0	0	0	0	0	0	0	0	0	0	0;
	467	62.6	10.0784777	36.4	-13.44	1.046165	100	1	80	0	0	0	0	0	0	0	0	0	0	0	0;
	474	5.2	66.16913	2.25	-1.06	1.078389	100	1	5.31	0	0	0	0	0	0	0	0	0	0	0	0;
	499	121.4	3.91849017	93.16	-29.49	1.079057	100	1	200	66.67	0	0	0	0	0	0	0	0	0	0	0;
	510	50.6	14.745933	37.66	-12.17	1.044277	100	1	80	0	0	0	0	0	0	0	0	0	0	0	0;
	516	-136.6	83.1292383	21.27	-20.07	1.079319	100	1	100	-182.13	0	0	0	0	0	0	0	0	0	0	0;
	524	50.4	84.993393	37.74	-12.11	1.031925	100	1	80	0	0	0	0	0	0	0	0	0	0	0	0;
	533	1250.4	271.72013	928.89	-296.1	1.044209	100	1	2000	666.67	0	0	0	0	0	0	0	0	0	0	0;
	534	62.7	16.58927	57.41	-17.22	1.005778	100	1	120	0	0	0	0	0	0	0	0	0	0	0	0;
	537	-189	49.3925265	31.94	-31.24	1.041486	100	1	100	-252	0	0	0	0	0	0	0	0	0	0	0;
	541	860.8	132.319422	439.37	-173.3	1.037844	100	1	1000	333.33	0	0	0	0	0	0	0	0	0	0	0;
	545	28.1	1.66979406	18.52	-6.39	1.061536	100	1	40	0	0	0	0	0	0	0	0	0	0	0	0;
	553	835.5	311.48707	387.67	-163.73	1.055274	100	1	900	300	0	0	0	0	0	0	0	0	0	0	0;
	556	40	163.835147	16.99	-7.92	1.040804	100	1	41.06	0	0	0	0	0	0	0	0	0	0	0	0;
	568	430.2	275.025689	272.25	-94.92	1.018729	100	1	600	200	0	0	0	0	0	0	0	0	0	0	0;
	569	-90.3	1.56939236	34.64	-15.2	1.023406	100	1	100	-120.4	0	0	0	0	0	0	0	0	0	0	0;
	570	1250.4	263.644321	926.35	-297.68	1.052726	100	1	2000	666.67	0	0	0	0	0	0	0	0	0	0	0;
	574	-0.6	2.16293428	111.23	-38.16	1.047818	100	1	100	-0.8	0	0	0	0	0	0	0	0	0	0	0;
	585	2.89	8.76325371	11.52	-10.09	1.020156	100	1	32.97	0	0	0	0	0	0	0	0	0	0	0	0;
	586	15.6	-0.781815601	11.76	-8.89	1.0492	100	1	31.92	0	0	0	0	0	0	0	0	0	0	0	0;
	587	-241.8	22.2053512	58.16	-16.52	1.056131	100	1	100	-322.4	0	0	0	0	0	0	0	0	0	0	0;
	599	573.68	38.047329	396.02	-155.83	1.043102	100	1	912.78	312.78	0	0	0	0	0	0	0	0	0	0	0;
	601	1526	129.24966	686.73	-294.62	1.050852	100	1	1600	533.33	0	0	0	0	0	0	0	0	0	0	0;
	606	246	10.9315632	133.11	-51.25	1.077705	100	1	300	0	0	0	0	0	0	0	0	0	0	0	0;
	608	-31.18	6.17758299	38.67	-11.1	1.021788	100	1	100	-41.57	0	0	0	0	0	0	0	0	0	0	0;
	612	115.5	-35.0534088	160.36	-150.95	1.038338	100	1	472.16	39.35	0	0	0	0	0	0	0	0	0	0	0;
	618	-17.02	37.1068896	2.05	-0.97	1.056511	100	1	100	-22.7	0	0	0	0	0	0	0	0	0	0	0;
	621	31	1.61984571	18.14	-6.75	1.066953	100	1	40	0	0	0	0	0	0	0	0	0	0	0	0;
	633	141.6	5.94583535	80.51	-30.07	1.080207	100	1	180	0	0	0	0	0	0	0	0	0	0	0	0;
	641	576	166.105938	257	-110.85	1.072679	100	1	600	200	0	0	0	0	0	0	0	0	0	0	0;
	643	855.6	164.066167	441.85	-171.27	1.034553	100	1	1000	333.33	0	0	0	0	0	0	0	0	0	0	0;
	647	836.2	-27.9377604	962.2	-263.65	1.008592	100	1	2000	666.67	0	0	0	0	0	0	0	0	0	0	0;
	659	176	26.8241939	88.39	-36.19	1.03273	100	1	200	0	0	0	0	0	0	0	0	0	0	0	0;
	662	33.9	4.50300305	17.88	-7.04	1.026543	100	1	40	0	0	0	0	0	0	0	0	0	0	0	0;
	664	1063.5	-14.9628315	522.74	-212.37	1.050714	100	1	1200	400	0	0	0	0	0	0	0	0	0	0	0;
	666	1269.4	718.584953	661.9	-257.62	1.048234	100	1	1500	500	0	0	0	0	0	0	0	0	0	0	0;
	678	498.4	98.9550481	266.17	-101.5	1.064827	100	1	600	200	0	0	0	0	0	0	0	0	0	0	0;
	686	-121.3	37.2237716	58.35	-16.26	1.070558	100	1	100	-161.73	0	0	0	0	0	0	0	0	0	0	0;
	691	7.9	7.96916196	7.47	-2.56	1.014181	100	1	16.12	0	0	0	0	0	0	0	0	0	0	0	0;
	692	-53.29	38.1644028	19.51	-14.74	1.036195	100	1	100	-71.05	0	0	0	0	0	0	0	0	0	0	0;
	694	204.3	27.2816082	137.29	-46.58	1.020141	100	1	300	100	0	0	0	0	0	0	0	0	0	0	0;
	696	-83.5	3.69625445	2.27	-1.04	1.02967	100	1	100	-111.33	0	0	0	0	0	0	0	0	0	0	0;
	703	-38.45	3.40920637	2.23	-1.07	1.023164	100	1	100	-51.26	0	0	0	0	0	0	0	0	0	0	0;
	709	362	-75.1004831	228.16	-78.83	1.000857	100	1	500	166.67	0	0	0	0	0	0	0	0	0	0	0;
	713	38.9	-21.0916619	41.67	-36.5	1.055141	100	1	119.3	0	0	0	0	0	0	0	0	0	0	0	0;
	716	110.5	17.0334502	95.69	-28.93	1.068687	100	1	200	0	0	0	0	0	0	0	0	0	0	0	0;
	730	431.2	239.51335	273.49	-94.1	1.040978	100	1	600	200	0	0	0	0	0	0	0	0	0	0	0;
	738	78.2	26.0819773	34.35	-15.5	1.025004	100	1	80	0	0	0	0	0	0	0	0	0	0	0	0;
	750	67.3	-77.8608003	134.54	-136.29	1.016849	100	1	409.09	0	0	0	0	0	0	0	0	0	0	0	0;
	752	-320.4	18.6156672	37.39	-12.45	1.047704	100	1	100	-427.2	0	0	0	0	0	0	0	0	0	0	0;
	754	-100.5	16.1837735	54.3	-20.49	1.043025	100	1	100	-134	0	0	0	0	0	0	0	0	0	0	0;
	755	-43.2	-19.7894307	105.34	-99.02	1.040828	100	1	100	-57.6	0	0	0	0	0	0	0	0	0	0	0;
	762	1367	294.408512	921.62	-304.73	1.053565	100	1	2000	666.67	0	0	0	0	0	0	0	0	0	0	0;
	768	37.79	22.543121	38.01	-11.74	0.983266	100	1	80	0	0	0	0	0	0	0	0	0	0	0	0;
	770	46.8	4.86249204	38.02	-11.81	1.049474	100	1	80	0	0	0	0	0	0	0	0	0	0	0	0;
	775	31.8	14.1908861	39.12	-10.71	1.041748	100	1	80	0	0	0	0	0	0	0	0	0	0	0	0;
	777	286.5	-16.2210499	162.4	-61.79	1.049212	100	1	360	0	0	0	0	0	0	0	0	0	0	0	0;
	785	3.85	-6.1511833	78.13	-77.07	1.017237	100	1	234.52	0	0	0	0	0	0	0	0	0	0	0	0;
	794	54.3	3.29419099	58.23	-16.49	1.050935	100	1	120	0	0	0	0	0	0	0	0	0	0	0	0;
	803	411.2	79.7724188	276.19	-91.63	1.044905	100	1	600	200	0	0	0	0	0	0	0	0	0	0	0;
	808	76.48	16.0097476	76.08	-23.59	1.041924	100	1	160	0	0	0	0	0	0	0	0	0	0	0	0;
	812	1367	296.956542	921.52	-304.79	1.052984	100	1	2000	666.67	0	0	0	0	0	0	0	0	0	0	0;
	815	1897	-74.9914144	848.76	-377.67	1.054923	100	1	2000	666.67	0	0	0	0	0	0	0	0	0	0	0;
	818	41.92	39.3571618	51.94	-22.8	1.036409	100	1	120	0	0	0	0	0	0	0	0	0	0	0	0;
	821	308.31	-5.53330164	124.68	-59.39	1.026597	100	1	700	200	0	0	0	0	0	0	0	0	0	0	0;
	822	144.9	13.478747	79.69	-30.77	1.013897	100	1	180	0	0	0	0	0	0	0	0	0	0	0	0;
	826	-72.9	-34.6580841	69.01	-69.9	1.020441	100	1	100	-97.2	0	0	0	0	0	0	0	0	0	0	0;
	835	77.6	-14.7394677	70.15	-58.1	1.039499	100	1	196.72	0	0	0	0	0	0	0	0	0	0	0	0;
	850	575.4	90.4767129	416.7	-134.5	1.05096	100	1	900	300	0	0	0	0	0	0	0	0	0	0	0;
	855	1221.2	388.205868	934.81	-291.47	1.069288	100	1	2000	666.67	0	0	0	0	0	0	0	0	0	0	0;
	859	-95.1	5.5366591	88.33	-36.33	1.044662	100	1	100	-126.8	0	0	0	0	0	0	0	0	0	0	0;
	860	66.8	-1.1987184	77.91	-21.66	1.055463	100	1	160	0	0	0	0	0	0	0	0	0	0	0	0;
	861	1048.2	-22.3370059	525.34	-209.84	1.030206	100	1	1200	400	0	0	0	0	0	0	0	0	0	0	0;
	867	1250.4	295.871582	926.26	-297.74	1.054536	100	1	2000	666.67	0	0	0	0	0	0	0	0	0	0	0;
	868	71.8	4.18023522	34.8	-14.94	0.991705	100	1	80	0	0	0	0	0	0	0	0	0	0	0	0;
	871	80.7	-2.82235294	55.98	-18.76	1.079986	100	1	120	0	0	0	0	0	0	0	0	0	0	0	0;
	872	31.6	6.13181677	18.19	-6.74	1.044122	100	1	40	0	0	0	0	0	0	0	0	0	0	0	0;
	878	126	10.272589	72.02	-27.47	1.000604	100	1	160	0	0	0	0	0	0	0	0	0	0	0	0;
	883	4.5	0.828638909	3.31	-2.54	1.060615	100	1	9.05	0	0	0	0	0	0	0	0	0	0	0	0;
	885	8.95	-8.35055357	72.95	-68.71	1.05418	100	1	214.86	0	0	0	0	0	0	0	0	0	0	0	0;
	886	60.9	12.4969523	57.69	-17.02	1.052878	100	1	120	0	0	0	0	0	0	0	0	0	0	0	0;
	890	-223.4	8.9669749	1.52	-0.73	1.011629	100	1	100	-297.87	0	0	0	0	0	0	0	0	0	0	0;
	894	20.9	1.5832849	19.19	-5.72	1.061022	100	1	40	0	0	0	0	0	0	0	0	0	0	0	0;
	907	53.2	2.40851201	37.24	-12.54	1.049271	100	1	80	0	0	0	0	0	0	0	0	0	0	0	0;
	909	3.4	0.467731773	2.51	-1.91	1.052968	100	1	6.83	0	0	0	0	0	0	0	0	0	0	0	0;
	912	-222.1	16.0264706	1.83	-0.87	1.020023	100	1	100	-296.13	0	0	0	0	0	0	0	0	0	0	0;
	928	46.6	-57.8000721	184.46	-132.67	1.05077	100	1	493.35	0	0	0	0	0	0	0	0	0	0	0	0;
	934	162.5	-4.91405141	89.61	-34.82	1.043371	100	1	200	0	0	0	0	0	0	0	0	0	0	0	0;
	940	855.7	161.475218	441.85	-171.27	1.034318	100	1	1000	333.33	0	0	0	0	0	0	0	0	0	0	0;
	946	210.4	147.144053	167.72	-77.11	0.999852	100	1	400	133.33	0	0	0	0	0	0	0	0	0	0	0;
	968	-20.3	33.3416304	22.39	-20.99	1.072644	100	1	100	-27.07	0	0	0	0	0	0	0	0	0	0	0;
	969	38.6	4.63419917	17.33	-7.61	1.0681	100	1	40	0	0	0	0	0	0	0	0	0	0	0	0;
	974	85.54	10.0218443	113.97	-35.56	1.061763	100	1	240	0	0	0	0	0	0	0	0	0	0	0	0;
	975	-136.3	-5.0185579	70.25	-29.33	1.02503	100	1	100	-181.73	0	0	0	0	0	0	0	0	0	0	0;
	979	-31.34	4.57868933	6.66	-5.1	1.017094	100	1	100	-41.79	0	0	0	0	0	0	0	0	0	0	0;
	980	9	2.41506708	6.78	-5.13	1.023658	100	1	18.41	0	0	0	0	0	0	0	0	0	0	0	0;
	981	33.9	-20.015513	67.92	-69.02	1.006379	100	1	206.86	0	0	0	0	0	0	0	0	0	0	0	0;
	987	98.7	-2.93283218	53.7	-20.98	1.056991	100	1	120	0	0	0	0	0	0	0	0	0	0	0	0;
	996	416.7	223.553487	243.61	-88.46	1.03763	100	1	540	0	0	0	0	0	0	0	0	0	0	0	0;
	1002	-107.4	16.6821063	36.79	-13	1.032146	100	1	100	-143.2	0	0	0	0	0	0	0	0	0	0	0;
	1006	13	0.239385278	178.47	-79.11	1.012423	100	1	420	0	0	0	0	0	0	0	0	0	0	0	0;
	1008	-42.3	-13.0524009	62.23	-51.37	1.051571	100	1	100	-56.4	0	0	0	0	0	0	0	0	0	0	0;
	1025	326.4	7.66184675	229	-77.02	1.027251	100	1	500	166.67	0	0	0	0	0	0	0	0	0	0	0;
	1029	861.3	134.521904	439.2	-173.43	1.069265	100	1	1000	333.33	0	0	0	0	0	0	0	0	0	0	0;
	1031	-26.48	21.7777703	38.13	-11.64	1.016523	100	1	100	-35.3	0	0	0	0	0	0	0	0	0	0	0;
	1035	-45.5	6.9342957	34.41	-15.34	1.03247	100	1	100	-60.67	0	0	0	0	0	0	0	0	0	0	0;
	1036	-600	2043.135	99999	-99999	1.08873	100	1	630	-630	0	0	0	0	0	0	0	0	0	0	0;
	1040	56.8	367.194639	37.1	-12.76	1.014746	100	1	80	0	0	0	0	0	0	0	0	0	0	0	0;
	1042	19.07	6.64747699	38.2	-11.61	1.047796	100	1	80	0	0	0	0	0	0	0	0	0	0	0	0;
	1044	44.5	-22.0125656	47.19	-41.44	1.055303	100	1	135.27	0	0	0	0	0	0	0	0	0	0	0	0;
	1052	2.4	19.327792	54.59	-20.19	1.041678	100	1	120	0	0	0	0	0	0	0	0	0	0	0	0;
	1060	171.3	38.3126824	76.43	-34.12	0.997085	100	1	180	0	0	0	0	0	0	0	0	0	0	0	0;
	1061	53.7	-2.85108901	58.19	-16.5	1.065868	100	1	120	0	0	0	0	0	0	0	0	0	0	0	0;
	1068	521	221.087886	550.97	-184.89	1.056276	100	1	1200	400	0	0	0	0	0	0	0	0	0	0	0;
	1085	-370.8	17.3915848	53.75	-21.08	1.04519	100	1	100	-494.4	0	0	0	0	0	0	0	0	0	0	0;
...